<?xml version="1.0" encoding="UTF-8"?>
<!--Sample XML file generated by XMLSpy v2013 (http://www.altova.com)-->
<flows>
	<flow id="mss_record_flow" name="全球购海关审批流程">
		<start executor="mssFlowStartExcutor" flowState="SALER_REVIED"/>
        <node id="mss_record_provider" name="供应商" role="provider" >
            <commond code="REPLY_COMMOND" executor="mssFlowProviderReplayExecutor" flowState="SALER_REVIED"/>
        </node>
		<node id="mss_record_saler" name="采销" role="saler">
			<commond code="AGREE_COMMOND" executor="mssFlowSalerAgreeExecutor" flowState="BEFOR_PORT_REVIED"/>
			<commond code="BACK_COMMOND" executor="mssFlowBackToStartExecutor" flowState="SALER_BACK"/>
		</node>
        <node id="mss_record_befor_port" name="口岸运营部(备案前)" role="port">
            <commond code="AGREE_COMMOND" executor="mssFlowBeforPortAgreeExecutor" flowState="SERVER_REVIED"/>
            <commond code="BACK_COMMOND" executor="mssFlowBackToStartExecutor" flowState="BEFOR_PORT_BACK"/>
        </node>
        <node id="mss_record_server" name="服务商" role="server">
            <commond code="AGREE_COMMOND" executor="mssFlowServerAgreeExecutor" flowState="AFTER_PORT_REVIED"/>
            <commond code="BACK_COMMOND" executor="mssFlowBackToStartExecutor" flowState="SERVER_BACK"/>
        </node>
        <node id="mss_record_after_port" name="口岸运营部(备案后)"  role="port">
            <commond code="AGREE_COMMOND" executor="mssFlowAfterPortAgreeExecutor" flowState="FLOW_SUCESS"/>
            <commond code="BACK_COMMOND" executor="mssFlowBackExecutor" flowState="AFTER_PORT_BACK"/>
        </node>
        <node id="mss_update_port" name="口岸运营部(发起更新)"  role="port">
            <commond code="UPDATE_COMMOND" executor="mssFlowPortStartUpdateExecutor" flowState="SERVER_UPDATE"/>
        </node>
	</flow>
</flows>
